<?xml version="1.0" encoding="UTF-8"?>

<!-- generated on 2023-10-16 23:04:15 by Eclipse SUMO netedit Version 1.18.0
<configuration xmlns:xsi="http://www.w3.org/2001/XMLSchema-instance" xsi:noNamespaceSchemaLocation="http://sumo.dlr.de/xsd/neteditConfiguration.xsd">

    <input>
        <sumo-net-file value="C:\Users\ipadw\Downloads\Hackthon\SUMO_test\Test_1_for_three_lane\TLCS\intersection\environment.net.xml"/>
    </input>

    <output>
        <output-file value="C:\Users\ipadw\Downloads\Hackthon\SUMO_test\Test_1_for_three_lane\TLCS\intersection\environment.net.xml"/>
    </output>

    <processing>
        <geometry.min-radius.fix.railways value="false"/>
        <geometry.max-grade.fix value="false"/>
        <offset.disable-normalization value="true"/>
        <lefthand value="0"/>
    </processing>

    <junctions>
        <no-turnarounds value="true"/>
        <junctions.corner-detail value="5"/>
        <junctions.limit-turn-speed value="5.50"/>
        <rectangular-lane-cut value="0"/>
    </junctions>

    <pedestrian>
        <walkingareas value="0"/>
    </pedestrian>

</configuration>
-->

<net version="1.16" junctionCornerDetail="5" limitTurnSpeed="5.50" xmlns:xsi="http://www.w3.org/2001/XMLSchema-instance" xsi:noNamespaceSchemaLocation="http://sumo.dlr.de/xsd/net_file.xsd">

    <location netOffset="0.00,0.00" convBoundary="-750.00,-750.00,750.00,750.00" origBoundary="-10000000000.00,-10000000000.00,10000000000.00,10000000000.00" projParameter="!"/>

    <edge id=":TL_0" function="internal">
        <lane id=":TL_0_0" index="0" speed="6.51" length="9.03" shape="-8.00,13.60 -8.35,11.15 -9.40,9.40 -11.15,8.35 -13.60,8.00"/>
    </edge>
    <edge id=":TL_1" function="internal">
        <lane id=":TL_1_0" index="0" speed="13.89" length="27.20" shape="-8.00,13.60 -8.00,-13.60"/>
        <lane id=":TL_1_1" index="1" speed="13.89" length="27.20" shape="-4.80,13.60 -4.80,-13.60"/>
        <lane id=":TL_1_2" index="2" speed="13.89" length="27.20" shape="-1.60,13.60 -1.60,-13.60"/>
    </edge>
    <edge id=":TL_4" function="internal">
        <lane id=":TL_4_0" index="0" speed="10.36" length="5.01" shape="-1.60,13.60 -0.89,8.64"/>
    </edge>
    <edge id=":TL_20" function="internal">
        <lane id=":TL_20_0" index="0" speed="10.36" length="19.50" shape="-0.89,8.64 -0.65,6.95 2.20,2.20 6.95,-0.65 13.60,-1.60"/>
    </edge>
    <edge id=":TL_5" function="internal">
        <lane id=":TL_5_0" index="0" speed="6.51" length="9.03" shape="13.60,8.00 11.15,8.35 9.40,9.40 8.35,11.15 8.00,13.60"/>
    </edge>
    <edge id=":TL_6" function="internal">
        <lane id=":TL_6_0" index="0" speed="13.89" length="27.20" shape="13.60,8.00 -13.60,8.00"/>
        <lane id=":TL_6_1" index="1" speed="13.89" length="27.20" shape="13.60,4.80 -13.60,4.80"/>
        <lane id=":TL_6_2" index="2" speed="13.89" length="27.20" shape="13.60,1.60 -13.60,1.60"/>
    </edge>
    <edge id=":TL_9" function="internal">
        <lane id=":TL_9_0" index="0" speed="10.36" length="5.01" shape="13.60,1.60 8.64,0.89"/>
    </edge>
    <edge id=":TL_21" function="internal">
        <lane id=":TL_21_0" index="0" speed="10.36" length="19.50" shape="8.64,0.89 6.95,0.65 2.20,-2.20 -0.65,-6.95 -1.60,-13.60"/>
    </edge>
    <edge id=":TL_10" function="internal">
        <lane id=":TL_10_0" index="0" speed="6.51" length="9.03" shape="8.00,-13.60 8.35,-11.15 9.40,-9.40 11.15,-8.35 13.60,-8.00"/>
    </edge>
    <edge id=":TL_11" function="internal">
        <lane id=":TL_11_0" index="0" speed="13.89" length="27.20" shape="8.00,-13.60 8.00,13.60"/>
        <lane id=":TL_11_1" index="1" speed="13.89" length="27.20" shape="4.80,-13.60 4.80,13.60"/>
        <lane id=":TL_11_2" index="2" speed="13.89" length="27.20" shape="1.60,-13.60 1.60,13.60"/>
    </edge>
    <edge id=":TL_14" function="internal">
        <lane id=":TL_14_0" index="0" speed="10.36" length="5.01" shape="1.60,-13.60 0.89,-8.64"/>
    </edge>
    <edge id=":TL_22" function="internal">
        <lane id=":TL_22_0" index="0" speed="10.36" length="19.50" shape="0.89,-8.64 0.65,-6.95 -2.20,-2.20 -6.95,0.65 -13.60,1.60"/>
    </edge>
    <edge id=":TL_15" function="internal">
        <lane id=":TL_15_0" index="0" speed="6.51" length="9.03" shape="-13.60,-8.00 -11.15,-8.35 -9.40,-9.40 -8.35,-11.15 -8.00,-13.60"/>
    </edge>
    <edge id=":TL_16" function="internal">
        <lane id=":TL_16_0" index="0" speed="13.89" length="27.20" shape="-13.60,-8.00 13.60,-8.00"/>
        <lane id=":TL_16_1" index="1" speed="13.89" length="27.20" shape="-13.60,-4.80 13.60,-4.80"/>
        <lane id=":TL_16_2" index="2" speed="13.89" length="27.20" shape="-13.60,-1.60 13.60,-1.60"/>
    </edge>
    <edge id=":TL_19" function="internal">
        <lane id=":TL_19_0" index="0" speed="10.36" length="5.01" shape="-13.60,-1.60 -8.64,-0.89"/>
    </edge>
    <edge id=":TL_23" function="internal">
        <lane id=":TL_23_0" index="0" speed="10.36" length="19.50" shape="-8.64,-0.89 -6.95,-0.65 -2.20,2.20 0.65,6.95 1.60,13.60"/>
    </edge>

    <edge id="E2TL" from="DE" to="TL" priority="-1" length="750.00">
        <lane id="E2TL_0" index="0" speed="13.89" length="750.00" shape="750.00,8.00 13.60,8.00"/>
        <lane id="E2TL_1" index="1" speed="13.89" length="750.00" shape="750.00,4.80 13.60,4.80"/>
        <lane id="E2TL_2" index="2" speed="13.89" length="750.00" shape="750.00,1.60 13.60,1.60"/>
    </edge>
    <edge id="N2TL" from="DN" to="TL" priority="-1" length="750.00">
        <lane id="N2TL_0" index="0" speed="13.89" length="750.00" shape="-8.00,750.00 -8.00,13.60"/>
        <lane id="N2TL_1" index="1" speed="13.89" length="750.00" shape="-4.80,750.00 -4.80,13.60"/>
        <lane id="N2TL_2" index="2" speed="13.89" length="750.00" shape="-1.60,750.00 -1.60,13.60"/>
    </edge>
    <edge id="S2TL" from="DS" to="TL" priority="-1" length="750.00">
        <lane id="S2TL_0" index="0" speed="13.89" length="750.00" shape="8.00,-750.00 8.00,-13.60"/>
        <lane id="S2TL_1" index="1" speed="13.89" length="750.00" shape="4.80,-750.00 4.80,-13.60"/>
        <lane id="S2TL_2" index="2" speed="13.89" length="750.00" shape="1.60,-750.00 1.60,-13.60"/>
    </edge>
    <edge id="TL2E" from="TL" to="DE" priority="-1" length="750.00">
        <lane id="TL2E_0" index="0" speed="13.89" length="750.00" shape="13.60,-8.00 750.00,-8.00"/>
        <lane id="TL2E_1" index="1" speed="13.89" length="750.00" shape="13.60,-4.80 750.00,-4.80"/>
        <lane id="TL2E_2" index="2" speed="13.89" length="750.00" shape="13.60,-1.60 750.00,-1.60"/>
    </edge>
    <edge id="TL2N" from="TL" to="DN" priority="-1" length="750.00">
        <lane id="TL2N_0" index="0" speed="13.89" length="750.00" shape="8.00,13.60 8.00,750.00"/>
        <lane id="TL2N_1" index="1" speed="13.89" length="750.00" shape="4.80,13.60 4.80,750.00"/>
        <lane id="TL2N_2" index="2" speed="13.89" length="750.00" shape="1.60,13.60 1.60,750.00"/>
    </edge>
    <edge id="TL2S" from="TL" to="DS" priority="-1" length="750.00">
        <lane id="TL2S_0" index="0" speed="13.89" length="750.00" shape="-8.00,-13.60 -8.00,-750.00"/>
        <lane id="TL2S_1" index="1" speed="13.89" length="750.00" shape="-4.80,-13.60 -4.80,-750.00"/>
        <lane id="TL2S_2" index="2" speed="13.89" length="750.00" shape="-1.60,-13.60 -1.60,-750.00"/>
    </edge>
    <edge id="TL2W" from="TL" to="DW" priority="-1" length="750.00">
        <lane id="TL2W_0" index="0" speed="13.89" length="750.00" shape="-13.60,8.00 -750.00,8.00"/>
        <lane id="TL2W_1" index="1" speed="13.89" length="750.00" shape="-13.60,4.80 -750.00,4.80"/>
        <lane id="TL2W_2" index="2" speed="13.89" length="750.00" shape="-13.60,1.60 -750.00,1.60"/>
    </edge>
    <edge id="W2TL" from="DW" to="TL" priority="-1" length="750.00">
        <lane id="W2TL_0" index="0" speed="13.89" length="750.00" shape="-750.00,-8.00 -13.60,-8.00"/>
        <lane id="W2TL_1" index="1" speed="13.89" length="750.00" shape="-750.00,-4.80 -13.60,-4.80"/>
        <lane id="W2TL_2" index="2" speed="13.89" length="750.00" shape="-750.00,-1.60 -13.60,-1.60"/>
    </edge>

    <tlLogic id="TL" type="static" programID="0" offset="0">
        <phase duration="100" state="GGGGgrrrrrGGGGgrrrrr"/>
        <phase duration="100" state="yyyyyrrrrryyyyyrrrrr"/>
        <phase duration="100" state="rrrrGrrrrrrrrrGrrrrr"/>
        <phase duration="100" state="rrrryrrrrrrrrryrrrrr"/>
        <phase duration="100" state="rrrrrGGGGgrrrrrGGGGg"/>
        <phase duration="100" state="rrrrryyyyyrrrrryyyyy"/>
        <phase duration="100" state="rrrrrrrrrGrrrrrrrrrG"/>
        <phase duration="100" state="rrrrrrrrryrrrrrrrrry"/>
    </tlLogic>

    <junction id="DE" type="dead_end" x="750.00" y="0.00" incLanes="TL2E_0 TL2E_1 TL2E_2" intLanes="" shape="750.00,0.00 750.00,-9.60 750.00,0.00"/>
    <junction id="DN" type="dead_end" x="0.00" y="750.00" incLanes="TL2N_0 TL2N_1 TL2N_2" intLanes="" shape="0.00,750.00 9.60,750.00 0.00,750.00"/>
    <junction id="DS" type="dead_end" x="0.00" y="-750.00" incLanes="TL2S_0 TL2S_1 TL2S_2" intLanes="" shape="0.00,-750.00 -9.60,-750.00 0.00,-750.00"/>
    <junction id="DW" type="dead_end" x="-750.00" y="0.00" incLanes="TL2W_0 TL2W_1 TL2W_2" intLanes="" shape="-750.00,0.00 -750.00,9.60 -750.00,0.00"/>
    <junction id="TL" type="traffic_light" x="0.00" y="0.00" incLanes="N2TL_0 N2TL_1 N2TL_2 E2TL_0 E2TL_1 E2TL_2 S2TL_0 S2TL_1 S2TL_2 W2TL_0 W2TL_1 W2TL_2" intLanes=":TL_0_0 :TL_1_0 :TL_1_1 :TL_1_2 :TL_20_0 :TL_5_0 :TL_6_0 :TL_6_1 :TL_6_2 :TL_21_0 :TL_10_0 :TL_11_0 :TL_11_1 :TL_11_2 :TL_22_0 :TL_15_0 :TL_16_0 :TL_16_1 :TL_16_2 :TL_23_0" shape="-9.60,13.60 9.60,13.60 10.04,11.38 10.60,10.60 11.38,10.04 12.38,9.71 13.60,9.60 13.60,-9.60 11.38,-10.04 10.60,-10.60 10.04,-11.38 9.71,-12.38 9.60,-13.60 -9.60,-13.60 -10.04,-11.38 -10.60,-10.60 -11.38,-10.04 -12.38,-9.71 -13.60,-9.60 -13.60,9.60 -11.38,10.04 -10.60,10.60 -10.04,11.38 -9.71,12.38">
        <request index="0"  response="00000000000000000000" foes="00000000000111000000" cont="0"/>
        <request index="1"  response="10000000001000000000" foes="11111100001111000000" cont="0"/>
        <request index="2"  response="10000000001000000000" foes="11111100001111000000" cont="0"/>
        <request index="3"  response="10000000001000000000" foes="11111100001111000000" cont="0"/>
        <request index="4"  response="10000011101000000000" foes="11110011101111000000" cont="1"/>
        <request index="5"  response="00000011100000000000" foes="00000011100000000000" cont="0"/>
        <request index="6"  response="00000111100000011111" foes="10000111100000011111" cont="0"/>
        <request index="7"  response="00000111100000011111" foes="10000111100000011111" cont="0"/>
        <request index="8"  response="00000111100000011111" foes="10000111100000011111" cont="0"/>
        <request index="9"  response="01110111100000011110" foes="01110111100000011110" cont="1"/>
        <request index="10" response="00000000000000000000" foes="01110000000000000000" cont="0"/>
        <request index="11" response="10000000001000000000" foes="11110000001111110000" cont="0"/>
        <request index="12" response="10000000001000000000" foes="11110000001111110000" cont="0"/>
        <request index="13" response="10000000001000000000" foes="11110000001111110000" cont="0"/>
        <request index="14" response="10000000001000001110" foes="11110000001111001110" cont="1"/>
        <request index="15" response="00000000000000001110" foes="00000000000000001110" cont="0"/>
        <request index="16" response="00000111110000011110" foes="00000111111000011110" cont="0"/>
        <request index="17" response="00000111110000011110" foes="00000111111000011110" cont="0"/>
        <request index="18" response="00000111110000011110" foes="00000111111000011110" cont="0"/>
        <request index="19" response="00000111100111011110" foes="00000111100111011110" cont="1"/>
    </junction>

    <junction id=":TL_20_0" type="internal" x="-0.89" y="8.64" incLanes=":TL_4_0 S2TL_0 S2TL_1 S2TL_2" intLanes=":TL_6_0 :TL_6_1 :TL_6_2 :TL_9_0 :TL_10_0 :TL_11_0 :TL_11_1 :TL_11_2 :TL_16_0 :TL_16_1 :TL_16_2 :TL_19_0"/>
    <junction id=":TL_21_0" type="internal" x="8.64" y="0.89" incLanes=":TL_9_0 W2TL_0 W2TL_1 W2TL_2" intLanes=":TL_1_0 :TL_1_1 :TL_1_2 :TL_4_0 :TL_11_0 :TL_11_1 :TL_11_2 :TL_14_0 :TL_15_0 :TL_16_0 :TL_16_1 :TL_16_2"/>
    <junction id=":TL_22_0" type="internal" x="0.89" y="-8.64" incLanes=":TL_14_0 N2TL_0 N2TL_1 N2TL_2" intLanes=":TL_0_0 :TL_1_0 :TL_1_1 :TL_1_2 :TL_6_0 :TL_6_1 :TL_6_2 :TL_9_0 :TL_16_0 :TL_16_1 :TL_16_2 :TL_19_0"/>
    <junction id=":TL_23_0" type="internal" x="-8.64" y="-0.89" incLanes=":TL_19_0 E2TL_0 E2TL_1 E2TL_2" intLanes=":TL_1_0 :TL_1_1 :TL_1_2 :TL_4_0 :TL_5_0 :TL_6_0 :TL_6_1 :TL_6_2 :TL_11_0 :TL_11_1 :TL_11_2 :TL_14_0"/>

    <connection from="E2TL" to="TL2N" fromLane="0" toLane="0" via=":TL_5_0" tl="TL" linkIndex="5" dir="r" state="o"/>
    <connection from="E2TL" to="TL2W" fromLane="0" toLane="0" via=":TL_6_0" tl="TL" linkIndex="6" dir="s" state="o"/>
    <connection from="E2TL" to="TL2W" fromLane="1" toLane="1" via=":TL_6_1" tl="TL" linkIndex="7" dir="s" state="o"/>
    <connection from="E2TL" to="TL2W" fromLane="2" toLane="2" via=":TL_6_2" tl="TL" linkIndex="8" dir="s" state="o"/>
    <connection from="E2TL" to="TL2S" fromLane="2" toLane="2" via=":TL_9_0" tl="TL" linkIndex="9" dir="l" state="o"/>
    <connection from="N2TL" to="TL2W" fromLane="0" toLane="0" via=":TL_0_0" tl="TL" linkIndex="0" dir="r" state="O"/>
    <connection from="N2TL" to="TL2S" fromLane="0" toLane="0" via=":TL_1_0" tl="TL" linkIndex="1" dir="s" state="O"/>
    <connection from="N2TL" to="TL2S" fromLane="1" toLane="1" via=":TL_1_1" tl="TL" linkIndex="2" dir="s" state="O"/>
    <connection from="N2TL" to="TL2S" fromLane="2" toLane="2" via=":TL_1_2" tl="TL" linkIndex="3" dir="s" state="O"/>
    <connection from="N2TL" to="TL2E" fromLane="2" toLane="2" via=":TL_4_0" tl="TL" linkIndex="4" dir="l" state="o"/>
    <connection from="S2TL" to="TL2E" fromLane="0" toLane="0" via=":TL_10_0" tl="TL" linkIndex="10" dir="r" state="O"/>
    <connection from="S2TL" to="TL2N" fromLane="0" toLane="0" via=":TL_11_0" tl="TL" linkIndex="11" dir="s" state="O"/>
    <connection from="S2TL" to="TL2N" fromLane="1" toLane="1" via=":TL_11_1" tl="TL" linkIndex="12" dir="s" state="O"/>
    <connection from="S2TL" to="TL2N" fromLane="2" toLane="2" via=":TL_11_2" tl="TL" linkIndex="13" dir="s" state="O"/>
    <connection from="S2TL" to="TL2W" fromLane="2" toLane="2" via=":TL_14_0" tl="TL" linkIndex="14" dir="l" state="o"/>
    <connection from="W2TL" to="TL2S" fromLane="0" toLane="0" via=":TL_15_0" tl="TL" linkIndex="15" dir="r" state="o"/>
    <connection from="W2TL" to="TL2E" fromLane="0" toLane="0" via=":TL_16_0" tl="TL" linkIndex="16" dir="s" state="o"/>
    <connection from="W2TL" to="TL2E" fromLane="1" toLane="1" via=":TL_16_1" tl="TL" linkIndex="17" dir="s" state="o"/>
    <connection from="W2TL" to="TL2E" fromLane="2" toLane="2" via=":TL_16_2" tl="TL" linkIndex="18" dir="s" state="o"/>
    <connection from="W2TL" to="TL2N" fromLane="2" toLane="2" via=":TL_19_0" tl="TL" linkIndex="19" dir="l" state="o"/>

    <connection from=":TL_0" to="TL2W" fromLane="0" toLane="0" dir="r" state="M"/>
    <connection from=":TL_1" to="TL2S" fromLane="0" toLane="0" dir="s" state="M"/>
    <connection from=":TL_1" to="TL2S" fromLane="1" toLane="1" dir="s" state="M"/>
    <connection from=":TL_1" to="TL2S" fromLane="2" toLane="2" dir="s" state="M"/>
    <connection from=":TL_4" to="TL2E" fromLane="0" toLane="2" via=":TL_20_0" dir="l" state="m"/>
    <connection from=":TL_20" to="TL2E" fromLane="0" toLane="2" dir="l" state="M"/>
    <connection from=":TL_5" to="TL2N" fromLane="0" toLane="0" dir="r" state="M"/>
    <connection from=":TL_6" to="TL2W" fromLane="0" toLane="0" dir="s" state="M"/>
    <connection from=":TL_6" to="TL2W" fromLane="1" toLane="1" dir="s" state="M"/>
    <connection from=":TL_6" to="TL2W" fromLane="2" toLane="2" dir="s" state="M"/>
    <connection from=":TL_9" to="TL2S" fromLane="0" toLane="2" via=":TL_21_0" dir="l" state="m"/>
    <connection from=":TL_21" to="TL2S" fromLane="0" toLane="2" dir="l" state="M"/>
    <connection from=":TL_10" to="TL2E" fromLane="0" toLane="0" dir="r" state="M"/>
    <connection from=":TL_11" to="TL2N" fromLane="0" toLane="0" dir="s" state="M"/>
    <connection from=":TL_11" to="TL2N" fromLane="1" toLane="1" dir="s" state="M"/>
    <connection from=":TL_11" to="TL2N" fromLane="2" toLane="2" dir="s" state="M"/>
    <connection from=":TL_14" to="TL2W" fromLane="0" toLane="2" via=":TL_22_0" dir="l" state="m"/>
    <connection from=":TL_22" to="TL2W" fromLane="0" toLane="2" dir="l" state="M"/>
    <connection from=":TL_15" to="TL2S" fromLane="0" toLane="0" dir="r" state="M"/>
    <connection from=":TL_16" to="TL2E" fromLane="0" toLane="0" dir="s" state="M"/>
    <connection from=":TL_16" to="TL2E" fromLane="1" toLane="1" dir="s" state="M"/>
    <connection from=":TL_16" to="TL2E" fromLane="2" toLane="2" dir="s" state="M"/>
    <connection from=":TL_19" to="TL2N" fromLane="0" toLane="2" via=":TL_23_0" dir="l" state="m"/>
    <connection from=":TL_23" to="TL2N" fromLane="0" toLane="2" dir="l" state="M"/>

</net>
